152
#molecule
C 28.453623 16.300783 12.290807
O 28.603485 17.035778 12.164834
C 29.176430 16.294411 12.386947
O 28.902601 17.000307 12.459567
C 29.800295 16.654369 12.500771
O 29.206810 17.062984 12.744393
C 30.150316 17.254210 12.723059
O 29.462648 17.210304 13.045128
C 30.155622 17.876350 13.103386
O 29.635029 17.396605 13.381542
C 29.876316 18.294733 13.631285
O 29.720577 17.561411 13.759851
C 29.480618 18.360718 14.240222
O 29.748903 17.652420 14.170354
C 29.180975 18.059538 14.832876
O 29.771358 17.645359 14.591119
C 29.153339 17.515928 15.318116
O 29.841524 17.553221 14.996316
C 29.470324 16.946716 15.645615
O 29.994856 17.421312 15.366029
C 30.073610 16.578465 15.824975
O 30.235212 17.310057 15.693823
C 30.796116 16.561384 15.922079
O 30.533390 17.272030 15.989188
C 31.425459 16.912271 16.034063
O 30.838223 17.331984 16.273937
C 31.784657 17.508123 16.252405
O 31.096006 17.477446 16.573912
C 31.799355 18.132872 16.628180
O 31.270922 17.663460 16.909174
C 31.526081 18.559473 17.152649
O 31.358627 17.829664 17.286375
C 31.130768 18.636160 17.760582
O 31.387911 17.923222 17.696238
C 30.825720 18.344103 18.355043
O 31.409765 17.918892 18.117071
C 30.788939 17.804567 18.844208
O 31.477999 17.828629 18.523020
C 31.096508 17.232836 19.176260
O 31.628798 17.697029 18.893881
C 31.693693 16.856428 19.359076
O 31.866987 17.584398 19.222784
C 32.415726 16.828653 19.457222
O 32.164185 17.543831 19.518801
C 33.050404 17.170368 19.567438
O 32.469593 17.601048 19.803490
C 33.418720 17.762058 19.781876
O 32.729301 17.744616 20.102720
C 33.442852 18.389236 20.153090
O 32.906742 17.930300 20.436836
C 33.175747 18.823931 20.674080
O 32.996628 18.097858 20.812925
C 32.780994 18.911304 21.280933
O 33.026913 18.193941 21.222128
C 32.470680 18.628469 21.877125
O 33.048210 18.192354 21.643011
C 32.424812 18.093180 22.370173
O 33.114536 18.104002 22.049694
C 32.722927 17.519114 22.706789
O 33.262810 17.972759 22.421701
C 33.313877 17.134672 22.893110
O 33.498806 17.858795 22.751722
C 34.035267 17.096218 22.992376
O 33.794987 17.815712 23.048403
C 34.675140 17.428667 23.100897
O 34.100937 17.870184 23.333055
C 35.052505 18.016022 23.311472
O 34.362526 18.011822 23.631559
C 35.086117 18.645445 23.678123
O 34.542496 18.197124 23.964535
C 34.825310 19.088112 24.195580
O 34.634579 18.365995 24.339500
C 34.431286 19.186155 24.801275
O 34.665909 18.464586 24.748030
C 34.115852 18.912630 25.399122
O 34.686687 18.465746 25.168940
C 34.947029 17.246054 25.142080
O 34.916592 18.004776 25.097841
C 34.230568 17.331810 25.036892
O 34.610390 17.951681 24.813200
C 33.668953 17.750496 24.834341
O 34.314739 17.996016 24.516180
C 33.413441 18.332739 24.477354
O 34.079842 18.110630 24.185596
C 33.498989 18.847029 23.967531
O 33.932831 18.241676 23.813023
C 33.830986 19.087673 23.364536
O 33.867443 18.329058 23.405975
C 34.221188 18.952940 22.763432
O 33.846413 18.329273 22.985077
C 34.459240 18.483709 22.258566
O 33.815613 18.231934 22.576208
C 34.392582 17.847944 21.907717
O 33.724628 18.063713 22.200680
C 33.984432 17.276878 21.710154
O 33.545921 17.878216 21.867136
C 33.327744 16.977156 21.606911
O 33.285267 17.735607 21.568270
C 32.609882 17.052347 21.503185
O 32.979584 17.679762 21.283604
C 32.041470 17.463577 21.304358
O 32.682892 17.721590 20.987257
C 31.776342 18.044304 20.951944
O 32.445797 17.834892 20.657795
C 31.853107 18.563597 20.445805
O 32.296257 17.966320 20.286362
C 32.180496 18.813858 19.844206
O 32.228985 18.055632 19.880041
C 32.572014 18.689707 19.241680
O 32.207417 18.058592 19.459181
C 32.816799 18.227999 18.733112
O 32.177635 17.963768 19.049646
C 32.759747 17.593842 18.377691
O 32.088844 17.796881 18.673000
C 32.360416 17.017857 18.176420
O 31.912661 17.611027 18.338312
C 31.708408 16.708559 18.071741
O 31.653913 17.466507 18.038712
C 30.989321 16.773155 17.969398
O 31.348787 17.407921 17.753994
C 30.414230 17.176794 17.774250
O 31.051092 17.447222 17.458307
C 30.139515 17.755819 17.426409
O 30.811819 17.559168 17.129959
C 30.207430 18.279947 16.924002
O 30.659754 17.690928 16.759670
C 30.530058 18.539742 16.323875
O 30.590557 17.782133 16.354095
C 30.922718 18.426201 15.720003
O 30.568409 17.787830 15.933294
C 31.174118 17.972151 15.207782
O 30.539608 17.695547 15.523109
C 31.126633 17.339787 14.847787
O 30.452984 17.530035 15.145353
C 30.736195 16.759048 14.642762
O 30.279335 17.343872 14.809517
C 30.089020 16.440262 14.536573
O 30.022520 17.197475 14.509163
C 29.368872 16.494234 14.435539
O 29.717997 17.136158 14.224379
C 28.787231 16.890150 14.244020
O 29.419342 17.172911 13.929331
C 28.502966 17.467293 13.900750
O 29.177912 17.283461 13.602090
C 28.561953 17.996086 13.402120
O 29.023312 17.415504 13.232954
C 28.879675 18.265329 12.803542
O 28.952169 17.508570 12.828139
C 29.273310 18.162422 12.198400
O 28.929398 17.516991 12.407415
C 29.531197 17.716156 11.682573
O 28.901535 17.427263 11.996599
